code/data/casedata/data_init/aus-data/AU14GenModelData_Ver04/LF_Case03_R4_Report.txt
1                                    PTI INTERACTIVE POWER SYSTEM SIMULATOR--PSS®E      MON, FEB 17 2014  18:49
                         LF_CASE03_R3_S  14-GENERATOR SIMPLIFIED MODEL OF 4-STATE         %MVA FOR TRANSFORMERS
                         SYSTEM: HPS 3GW; AREA5<-AREA3<-AREA2->AREA4 250-1000-500         % I  FOR NON-TRANSFORMER BRANCHES

 X------- FROM BUS ------X AREA  VOLT            GEN    LOAD    SHUNT  X---------- TO BUS ----------X                        TRANSFORMER     RATING
   BUS# X-- NAME --X BASKV ZONE  PU/KV  ANGLE  MW/MVAR MW/MVAR MW/MVAR   BUS# X-- NAME --X BASKV AREA CKT    MW     MVAR    RATIO   ANGLE   %  SET A

    101 1_HPSGEN    15.000    1 1.0000    0.0  2979.1      0.0     0.0 -----------------------------------------------------------------------------
                              1 15.000          261.4R     0.0     0.0    102 1_HPS330    330.00    1  1   2979.1   261.4  0.948LK

    102 1_HPS330    330.00    1 1.0510   -4.6     0.0    475.0     0.0 -----------------------------------------------------------------------------
                              1 346.81            0.0     50.0     0.0    101 1_HPSGEN    15.000    1  1  -2979.1   -20.3  1.000UN
                                                                          217 2_YC_330    330.00    2  1    362.2     2.3
                                                                          217 2_YC_330    330.00    2  2    362.2     2.3
                                                                          217 2_YC_330    330.00    2  3    389.6     9.1
                                                                          217 2_YC_330    330.00    2  4    389.6     9.1
                                                                          309 3_D__330    330.00    3  1    415.1    -8.6
                                                                          309 3_D__330    330.00    3  2    415.1    -8.6
                                                                          309 3_D__330    330.00    3  3    170.3   -35.5
    201 2_BPSGEN    20.000    2 1.0000   -3.5  3300.0      0.0     0.0 -----------------------------------------------------------------------------
                              1 20.000          654.9R     0.0     0.0    206 2_BPS330    330.00    2  1   3300.0   654.9  0.939LK

    202 2_EPSGEN    20.000    2 1.0000  -11.1  2350.0      0.0     0.0 -----------------------------------------------------------------------------
                              1 20.000          637.8R     0.0     0.0    209 2_EPS330    330.00    2  1   2350.0   637.8  0.939LK

    203 2_VPSGEN    20.000    2 1.0000  -21.5   450.0      0.0     0.0 -----------------------------------------------------------------------------
                              1 20.000          314.1R     0.0     0.0    208 2_VPS330    330.00    2  1    450.0   314.1  0.939LK

    204 2_MPSGEN    20.000    2 1.0000    0.7  3216.0      0.0     0.0 -----------------------------------------------------------------------------
                              1 20.000          578.9R     0.0     0.0    215 2_MPS330    330.00    2  1   3216.0   578.9  0.939LK

    205 2_ASV330    330.00    2 1.0200  -29.3     0.0    410.0     0.0 -----------------------------------------------------------------------------
                              1 336.60           -5.2R    40.0     0.0    206 2_BPS330    330.00    2  1   -446.7    47.8
                                                                          206 2_BPS330    330.00    2  2   -446.7    47.8
                                                                          416 4_DU_330    330.00    4  1    241.7   -70.4
                                                                          416 4_DU_330    330.00    4  2    241.7   -70.4
    206 2_BPS330    330.00    2 1.0477  -10.3     0.0    140.0     0.0 -----------------------------------------------------------------------------
                              1 345.75            0.0     15.0     0.0    201 2_BPSGEN    20.000    2  1  -3300.0  -255.7  1.000UN
                                                                          205 2_ASV330    330.00    2  1    466.0     5.2
                                                                          205 2_ASV330    330.00    2  2    466.0     5.2
                                                                          207 2_N__330    330.00    2  1    650.0    53.0
                                                                          207 2_N__330    330.00    2  2    650.0    53.0
                                                                          212 2_SW_330    330.00    2  1    621.4    76.6
                                                                          212 2_SW_330    330.00    2  2    621.4    76.6
                                                                          215 2_MPS330    330.00    2  1   -157.4   -14.5
                                                                          215 2_MPS330    330.00    2  2   -157.4   -14.5
    207 2_N__330    330.00    2 1.0172  -22.6     0.0   1975.0     0.0 -----------------------------------------------------------------------------
                              1 335.67            0.0    200.0     0.0    206 2_BPS330    330.00    2  1   -632.4    39.3
                                                                          206 2_BPS330    330.00    2  2   -632.4    39.3
                                                                          208 2_VPS330    330.00    2  1    314.3   -76.4
                                                                          208 2_VPS330    330.00    2  2    314.3   -76.4
                                                                          209 2_EPS330    330.00    2  1  -1338.8  -125.8
    208 2_VPS330    330.00    2 1.0219  -25.1     0.0    220.0     0.0 -----------------------------------------------------------------------------
                              1 337.22            0.0     25.0     0.0    203 2_VPSGEN    20.000    2  1   -450.0  -273.5  1.000UN
                                                                          207 2_N__330    330.00    2  1   -312.5    72.6
                                                                          207 2_N__330    330.00    2  2   -312.5    72.6
                                                                          211 2_SN_330    330.00    2  1    285.0    34.4
                                                                          211 2_SN_330    330.00    2  2    285.0    34.4
                                                                          211 2_SN_330    330.00    2  3    285.0    34.4
    209 2_EPS330    330.00    2 1.0383  -18.2     0.0      0.0     0.0 -----------------------------------------------------------------------------
                              1 342.63            0.0      0.0     0.0    202 2_EPSGEN    20.000    2  1  -2350.0  -336.6  1.000UN
                                                                          207 2_N__330    330.00    2  1   1352.8   226.1
                                                                          210 2_EPS500    500.00    2  1    121.2    11.0  0.976LK
                                                                          210 2_EPS500    500.00    2  2    121.2    11.0  0.976LK
                                                                          210 2_EPS500    500.00    2  3    121.2    11.0  0.976LK
                                                                          210 2_EPS500    500.00    2  4    121.2    11.0  0.976LK
                                                                          212 2_SW_330    330.00    2  1    512.5    66.6
    210 2_EPS500    500.00    2 1.0619  -19.8     0.0      0.0     0.0 -----------------------------------------------------------------------------
                              1 530.94            0.0      0.0     0.0    209 2_EPS330    330.00    2  1   -121.2    -7.4  1.000UN
                                                                          209 2_EPS330    330.00    2  2   -121.2    -7.4  1.000UN
                                                                          209 2_EPS330    330.00    2  3   -121.2    -7.4  1.000UN
                                                                          209 2_EPS330    330.00    2  4   -121.2    -7.4  1.000UN
                                                                          213 2_K__500    500.00    2  1    242.3    14.9
                                                                          213 2_K__500    500.00    2  2    242.3    14.9
    211 2_SN_330    330.00    2 1.0033  -29.0     0.0   1785.0     0.0 -----------------------------------------------------------------------------
                              1 331.10            0.0    180.0  -100.7    208 2_VPS330    330.00    2  1   -282.5   -45.7
                                                                          208 2_VPS330    330.00    2  2   -282.5   -45.7
                                                                          208 2_VPS330    330.00    2  3   -282.5   -45.7
                                                                          212 2_SW_330    330.00    2  1   -142.8    43.6
                                                                          212 2_SW_330    330.00    2  2   -142.8    43.6
                                                                          214 2_K__330    330.00    2  1   -651.8   -29.5
    212 2_SW_330    330.00    2 1.0000  -28.1     0.0   1740.0     0.0 -----------------------------------------------------------------------------
                              1 330.01            0.0    180.0  -150.0    206 2_BPS330    330.00    2  1   -597.4    47.1
                                                                          206 2_BPS330    330.00    2  2   -597.4    47.1
                                                                          209 2_EPS330    330.00    2  1   -501.2   -22.5
                                                                          211 2_SN_330    330.00    2  1    143.1   -54.5
                                                                          211 2_SN_330    330.00    2  2    143.1   -54.5
                                                                          217 2_YC_330    330.00    2  1   -330.1     7.3
    213 2_K__500    500.00    2 1.0462  -21.6     0.0      0.0     0.0 -----------------------------------------------------------------------------
                              1 523.11            0.0      0.0     0.0    210 2_EPS500    500.00    2  1   -241.7  -177.1
                                                                          210 2_EPS500    500.00    2  2   -241.7  -177.1
                                                                          214 2_K__330    330.00    2  1    120.9    88.6  1.000LK
                                                                          214 2_K__330    330.00    2  2    120.9    88.6  1.000LK
                                                                          214 2_K__330    330.00    2  3    120.9    88.6  1.000LK
                                                                          214 2_K__330    330.00    2  4    120.9    88.6  1.000LK
    214 2_K__330    330.00    2 1.0237  -23.4     0.0      0.0     0.0 -----------------------------------------------------------------------------
                              1 337.81            0.0      0.0     0.0    211 2_SN_330    330.00    2  1    659.9    75.4
                                                                          213 2_K__500    500.00    2  1   -120.9   -83.0  1.000UN
                                                                          213 2_K__500    500.00    2  2   -120.9   -83.0  1.000UN
                                                                          213 2_K__500    500.00    2  3   -120.9   -83.0  1.000UN
                                                                          213 2_K__500    500.00    2  4   -120.9   -83.0  1.000UN
                                                                          216 2_SS_330    330.00    2  1     91.1   216.6
                                                                          217 2_YC_330    330.00    2  1   -267.5    39.8
    215 2_MPS330    330.00    2 1.0502   -5.9     0.0    505.0     0.0 -----------------------------------------------------------------------------
                              1 346.56            0.0     50.0     0.0    204 2_MPSGEN    20.000    2  1  -3216.0  -202.4  1.000UN
                                                                          206 2_BPS330    330.00    2  1    158.9   -44.5
                                                                          206 2_BPS330    330.00    2  2    158.9   -44.5
                                                                          216 2_SS_330    330.00    2  1    816.4   109.0
                                                                          216 2_SS_330    330.00    2  2    816.4   109.0
                                                                          217 2_YC_330    330.00    2  1    380.1    11.6
                                                                          217 2_YC_330    330.00    2  2    380.1    11.6
    216 2_SS_330    330.00    2 1.0061  -23.6     0.0   1930.0     0.0 -----------------------------------------------------------------------------
                              1 332.02            0.0    200.0  -151.8    214 2_K__330    330.00    2  1    -90.5  -222.2
                                                                          215 2_MPS330    330.00    2  1   -784.8    89.1
                                                                          215 2_MPS330    330.00    2  2   -784.8    89.1
                                                                          217 2_YC_330    330.00    2  1   -270.0    -4.1
    217 2_YC_330    330.00    2 1.0173  -17.5     0.0   1320.0     0.0 -----------------------------------------------------------------------------
                              1 335.72            0.0    140.0     0.0    102 1_HPS330    330.00    1  1   -352.0    -9.2
                                                                          102 1_HPS330    330.00    1  2   -352.0    -9.2
                                                                          102 1_HPS330    330.00    1  3   -378.7    -3.8
                                                                          102 1_HPS330    330.00    1  4   -378.7    -3.8
                                                                          212 2_SW_330    330.00    2  1    337.9   -15.2
                                                                          214 2_K__330    330.00    2  1    271.0   -61.3
                                                                          215 2_MPS330    330.00    2  1   -370.5   -10.2
                                                                          215 2_MPS330    330.00    2  2   -370.5   -10.2
                                                                          216 2_SS_330    330.00    2  1    273.6   -17.3
    301 3_LPSGEN    20.000    3 1.0000   -4.8  4640.0      0.0     0.0 -----------------------------------------------------------------------------
                              1 20.000         1260.8R     0.0     0.0    303 3_LPS500    500.00    3  1   4640.0  1260.8  0.930LK

    302 3_YPSGEN    20.000    3 1.0000  -18.4  1272.0      0.0     0.0 -----------------------------------------------------------------------------
                              1 20.000          198.6R     0.0     0.0    312 3_YPS220    220.00    3  1   1272.0   198.6  0.952LK

    303 3_LPS500    500.00    3 1.0481  -11.9     0.0      0.0     0.0 -----------------------------------------------------------------------------
                              1 524.06            0.0      0.0     0.0    301 3_LPSGEN    20.000    3  1  -4640.0  -660.9  1.000UN
                                                                          304 3_R__500    500.00    3  1    794.1   142.3
                                                                          304 3_R__500    500.00    3  2    794.1   142.3
                                                                          305 3_SM_500    500.00    3  1   1525.9   188.2
                                                                          305 3_SM_500    500.00    3  2   1525.9   188.2
    304 3_R__500    500.00    3 1.0060  -23.9     0.0      0.0     0.0 -----------------------------------------------------------------------------
                              1 502.98            0.0      0.0     0.0    303 3_LPS500    500.00    3  1   -782.0   -51.2
                                                                          303 3_LPS500    500.00    3  2   -782.0   -51.2
                                                                          305 3_SM_500    500.00    3  1    478.6  -292.6
                                                                          313 3_RSV220    220.00    3  1    542.7   197.4  0.948LK
                                                                          313 3_RSV220    220.00    3  2    542.7   197.4  0.948LK
    305 3_SM_500    500.00    3 1.0155  -25.0     0.0      0.0     0.0 -----------------------------------------------------------------------------
                              1 507.76            0.0      0.0     0.0    303 3_LPS500    500.00    3  1  -1501.8   -18.5
                                                                          303 3_LPS500    500.00    3  2  -1501.8   -18.5
                                                                          304 3_R__500    500.00    3  1   -477.7   261.2
                                                                          306 3_K__500    500.00    3  1   1406.1   -62.2
                                                                          307 3_M__500    500.00    3  1    928.2  -115.7
                                                                          307 3_M__500    500.00    3  2    928.2  -115.7
                                                                          311 3_SM_330    330.00    3  1   -243.2     4.5  1.000LK
                                                                          311 3_SM_330    330.00    3  2   -243.2     4.5  1.000LK
                                                                          311 3_SM_330    330.00    3  3   -243.2     4.5  1.000LK
                                                                          314 3_SM_220    220.00    3  1    474.3    28.0  1.000LK
                                                                          314 3_SM_220    220.00    3  2    474.3    28.0  1.000LK
    306 3_K__500    500.00    3 1.0149  -27.4     0.0   1450.0     0.0 -----------------------------------------------------------------------------
                              1 507.47            0.0    150.0     0.0    305 3_SM_500    500.00    3  1  -1402.2    86.8
                                                                          307 3_M__500    500.00    3  1    -47.8  -236.8
    307 3_M__500    500.00    3 1.0177  -27.3     0.0    770.0     0.0 -----------------------------------------------------------------------------
                              1 508.86            0.0     80.0     0.0    305 3_SM_500    500.00    3  1   -925.7   107.5
                                                                          305 3_SM_500    500.00    3  2   -925.7   107.5
                                                                          306 3_K__500    500.00    3  1     47.8   224.3
                                                                          308 3_H__500    500.00    3  1    516.8  -259.6
                                                                          308 3_H__500    500.00    3  2    516.8  -259.6
    308 3_H__500    500.00    3 1.0454  -36.5     0.0    770.0     0.0 -----------------------------------------------------------------------------
                              1 522.69            0.0     80.0     0.0    307 3_M__500    500.00    3  1   -510.7   -21.2
                                                                          307 3_M__500    500.00    3  2   -510.7   -21.2
                                                                          315 3_H__275    275.00    3  1    125.7   -18.8  1.000LK
                                                                          315 3_H__275    275.00    3  2    125.7   -18.8  1.000LK
    309 3_D__330    330.00    3 1.0374  -12.4     0.0    230.0     0.0 -----------------------------------------------------------------------------
                              1 342.34            0.0     25.0     0.0    102 1_HPS330    330.00    1  1   -408.1    16.6
                                                                          102 1_HPS330    330.00    1  2   -408.1    16.6
                                                                          102 1_HPS330    330.00    1  3   -167.4   -24.6
                                                                          310 3_SS_330    330.00    3  1    251.2   -11.2
                                                                          310 3_SS_330    330.00    3  2    251.2   -11.2
                                                                          310 3_SS_330    330.00    3  3    251.2   -11.2
    310 3_SS_330    330.00    3 1.0168  -27.0     0.0      0.0     0.0 -----------------------------------------------------------------------------
                              1 335.53            0.0      0.0     0.0    309 3_D__330    330.00    3  1   -243.2    12.8
                                                                          309 3_D__330    330.00    3  2   -243.2    12.8
                                                                          309 3_D__330    330.00    3  3   -243.2    12.8
                                                                          311 3_SM_330    330.00    3  1    364.9   -19.2
                                                                          311 3_SM_330    330.00    3  2    364.9   -19.2
    311 3_SM_330    330.00    3 1.0176  -20.2     0.0      0.0     0.0 -----------------------------------------------------------------------------
                              1 335.80            0.0      0.0     0.0    305 3_SM_500    500.00    3  1    243.2    16.2  1.000UN
                                                                          305 3_SM_500    500.00    3  2    243.2    16.2  1.000UN
                                                                          305 3_SM_500    500.00    3  3    243.2    16.2  1.000UN
                                                                          310 3_SS_330    330.00    3  1   -364.9   -24.3
                                                                          310 3_SS_330    330.00    3  2   -364.9   -24.3
    312 3_YPS220    220.00    3 1.0391  -24.0     0.0    140.0     0.0 -----------------------------------------------------------------------------
                              1 228.59            0.0     15.0     0.0    302 3_YPSGEN    20.000    3  1  -1272.0   -71.5  1.000UN
                                                                          313 3_RSV220    220.00    3  1    377.3    18.8
                                                                          313 3_RSV220    220.00    3  2    377.3    18.8
                                                                          313 3_RSV220    220.00    3  3    377.3    18.8
    313 3_RSV220    220.00    3 1.0150  -33.2     0.0   2840.0     0.0 -----------------------------------------------------------------------------
                              1 223.30          158.8R   290.0     0.0    304 3_R__500    500.00    3  1   -542.7  -102.7  1.000UN
                                                                          304 3_R__500    500.00    3  2   -542.7  -102.7  1.000UN
                                                                          312 3_YPS220    220.00    3  1   -369.4     9.4
                                                                          312 3_YPS220    220.00    3  2   -369.4     9.4
                                                                          312 3_YPS220    220.00    3  3   -369.4     9.4
                                                                          314 3_SM_220    220.00    3  1   -323.3    23.0
                                                                          314 3_SM_220    220.00    3  2   -323.3    23.0
    314 3_SM_220    220.00    3 1.0151  -31.4     0.0    300.0     0.0 -----------------------------------------------------------------------------
                              1 223.32            0.0     30.0     0.0    305 3_SM_500    500.00    3  1   -474.3    24.6  1.000UN
                                                                          305 3_SM_500    500.00    3  2   -474.3    24.6  1.000UN
                                                                          313 3_RSV220    220.00    3  1    324.3   -39.6
                                                                          313 3_RSV220    220.00    3  2    324.3   -39.6
    315 3_H__275    275.00    3 1.0507  -38.3     0.0      0.0     0.0 -----------------------------------------------------------------------------
                              1 288.96            0.0      0.0     0.0    308 3_H__500    500.00    3  1   -125.7    22.8  1.000UN
                                                                          308 3_H__500    500.00    3  2   -125.7    22.8  1.000UN
                                                                          509 5_SSV275    275.00    5  1    125.7   -22.8
                                                                          509 5_SSV275    275.00    5  2    125.7   -22.8
    401 4_TPSGEN    20.000    4 1.0000  -45.4  1400.0      0.0     0.0 -----------------------------------------------------------------------------
                              1 20.000          492.6R     0.0     0.0    410 4_TPS275    275.00    4  1   1400.0   492.6  0.939LK

    402 4_CPSGEN    20.000    4 1.0000  -22.6   870.0      0.0     0.0 -----------------------------------------------------------------------------
                              1 20.000           96.1R     0.0     0.0    408 4_CPS275    275.00    4  1    870.0    96.1  0.952LK

    403 4_SPSGEN    20.000    4 1.0000  -21.2  1400.0      0.0     0.0 -----------------------------------------------------------------------------
                              1 20.000          189.4R     0.0     0.0    407 4_SPS275    275.00    4  1   1400.0   189.4  0.952LK

    404 4_GPSGEN    20.000    4 1.0000  -28.3  1464.0      0.0     0.0 -----------------------------------------------------------------------------
                              1 20.000          239.9R     0.0     0.0    405 4_GPS275    275.00    4  1   1464.0   239.9  0.952LK

    405 4_GPS275    275.00    4 1.0374  -34.9     0.0   1215.0     0.0 -----------------------------------------------------------------------------
                              1 285.27            0.0    120.0     0.0    404 4_GPSGEN    20.000    4  1  -1464.0   -70.2  1.000UN
                                                                          406 4_N__275    275.00    4  1   -190.7     7.8
                                                                          406 4_N__275    275.00    4  2   -190.7     7.8
                                                                          408 4_CPS275    275.00    4  1   -172.3     1.7
                                                                          409 4_W__275    275.00    4  1    267.6   -22.4
                                                                          409 4_W__275    275.00    4  2    267.6   -22.4
                                                                          409 4_W__275    275.00    4  3    267.6   -22.4
    406 4_N__275    275.00    4 1.0354  -30.0     0.0    905.0     0.0 -----------------------------------------------------------------------------
                              1 284.72            0.0     90.0     0.0    405 4_GPS275    275.00    4  1    192.1   -32.3
                                                                          405 4_GPS275    275.00    4  2    192.1   -32.3
                                                                          407 4_SPS275    275.00    4  1   -644.6   -12.7
                                                                          407 4_SPS275    275.00    4  2   -644.6   -12.7
    407 4_SPS275    275.00    4 1.0409  -27.4     0.0      0.0     0.0 -----------------------------------------------------------------------------
                              1 286.24            0.0      0.0     0.0    403 4_SPSGEN    20.000    4  1  -1400.0   -36.4  1.000UN
                                                                          406 4_N__275    275.00    4  1    646.9    35.5
                                                                          406 4_N__275    275.00    4  2    646.9    35.5
                                                                          408 4_CPS275    275.00    4  1    106.2   -34.6
    408 4_CPS275    275.00    4 1.0440  -30.3     0.0    185.0     0.0 -----------------------------------------------------------------------------
                              1 287.09            0.0     20.0     0.0    402 4_CPSGEN    20.000    4  1   -870.0    22.0  1.000UN
                                                                          405 4_GPS275    275.00    4  1    173.8    -8.3
...