code/data/casedata/data_init/aus-data/AU14GenModelData_Ver04/LF_Case04_R4_Report.txt
1                                    PTI INTERACTIVE POWER SYSTEM SIMULATOR--PSS®E      MON, FEB 17 2014  18:49
                         LF_CASE04_R3_S   14-GEN. SIMPLIFIED MODEL OF THE 4-STATE         %MVA FOR TRANSFORMERS
                         SYSTEM: LIGHTLD AREA4<-AREA2->AREA3->AREA5 200-200-200MW         % I  FOR NON-TRANSFORMER BRANCHES

 X------- FROM BUS ------X AREA  VOLT            GEN    LOAD    SHUNT  X---------- TO BUS ----------X                        TRANSFORMER     RATING
   BUS# X-- NAME --X BASKV ZONE  PU/KV  ANGLE  MW/MVAR MW/MVAR MW/MVAR   BUS# X-- NAME --X BASKV AREA CKT    MW     MVAR    RATIO   ANGLE   %  SET A

    101 1_HPSGEN    15.000    1 1.0000  -21.6     0.0      0.0     0.0 -----------------------------------------------------------------------------
                              1 15.000         -194.7R     0.0     0.0    102 1_HPS330    330.00    1  1      0.0  -194.7  1.000LK

    102 1_HPS330    330.00    1 1.0350  -21.6     0.0    270.0     0.0 -----------------------------------------------------------------------------
                              1 341.57            0.0     30.0     0.0    101 1_HPSGEN    15.000    1  1      0.0   201.5  1.000UN
                                                                          217 2_YC_330    330.00    2  1   -113.1   -20.9
                                                                          217 2_YC_330    330.00    2  2   -113.1   -20.9
                                                                          217 2_YC_330    330.00    2  3   -121.7   -16.2
                                                                          217 2_YC_330    330.00    2  4   -121.7   -16.2
                                                                          309 3_D__330    330.00    3  1     82.8   -52.4
                                                                          309 3_D__330    330.00    3  2     82.8   -52.4
                                                                          309 3_D__330    330.00    3  3     34.0   -52.6
    201 2_BPSGEN    20.000    2 1.0000    5.9  2160.0      0.0     0.0 -----------------------------------------------------------------------------
                              1 20.000         -123.3R     0.0     0.0    206 2_BPS330    330.00    2  1   2160.0  -123.3  1.000LK

    202 2_EPSGEN    20.000    2 1.0000    1.5  1380.0      0.0     0.0 -----------------------------------------------------------------------------
                              1 20.000           -7.4R     0.0     0.0    209 2_EPS330    330.00    2  1   1380.0    -7.4  1.000LK

    203 2_VPSGEN    20.000    2 1.0000    1.2  1410.0      0.0     0.0 -----------------------------------------------------------------------------
                              1 20.000           28.2R     0.0     0.0    208 2_VPS330    330.00    2  1   1410.0    28.2  1.000LK

    204 2_MPSGEN    20.000    2 1.0000    0.0  1597.1      0.0     0.0 -----------------------------------------------------------------------------
                              1 20.000         -174.2R     0.0     0.0    215 2_MPS330    330.00    2  1   1597.1  -174.2  1.000LK

    205 2_ASV330    330.00    2 1.0450  -10.7     0.0    235.0     0.0 -----------------------------------------------------------------------------
                              1 344.85          -39.4R    25.0     0.0    206 2_BPS330    330.00    2  1   -213.9    34.7
                                                                          206 2_BPS330    330.00    2  2   -213.9    34.7
                                                                          416 4_DU_330    330.00    4  1     96.4   -66.9
                                                                          416 4_DU_330    330.00    4  2     96.4   -66.9
    206 2_BPS330    330.00    2 1.0157   -1.4     0.0     80.0     0.0 -----------------------------------------------------------------------------
                              1 335.18            0.0     10.0     0.0    201 2_BPSGEN    20.000    2  1  -2160.0   404.1  1.000UN
                                                                          205 2_ASV330    330.00    2  1    218.6   -96.6
                                                                          205 2_ASV330    330.00    2  2    218.6   -96.6
                                                                          207 2_N__330    330.00    2  1    301.7    -8.9
                                                                          207 2_N__330    330.00    2  2    301.7    -8.9
                                                                          212 2_SW_330    330.00    2  1    385.5   -57.5
                                                                          212 2_SW_330    330.00    2  2    385.5   -57.5
                                                                          215 2_MPS330    330.00    2  1    134.3   -44.1
                                                                          215 2_MPS330    330.00    2  2    134.3   -44.1
    207 2_N__330    330.00    2 1.0031   -7.5     0.0   1130.0     0.0 -----------------------------------------------------------------------------
                              1 331.02            0.0    120.0     0.0    206 2_BPS330    330.00    2  1   -297.7    -4.1
                                                                          206 2_BPS330    330.00    2  2   -297.7    -4.1
                                                                          208 2_VPS330    330.00    2  1    -58.8   -32.0
                                                                          208 2_VPS330    330.00    2  2    -58.8   -32.0
                                                                          209 2_EPS330    330.00    2  1   -417.0   -47.7
    208 2_VPS330    330.00    2 1.0074   -7.0     0.0    125.0     0.0 -----------------------------------------------------------------------------
                              1 332.45            0.0     15.0     0.0    203 2_VPSGEN    20.000    2  1  -1410.0   174.6  1.000UN
                                                                          207 2_N__330    330.00    2  1     58.9    15.3
                                                                          207 2_N__330    330.00    2  2     58.9    15.3
                                                                          211 2_SN_330    330.00    2  1    389.1   -73.4
                                                                          211 2_SN_330    330.00    2  2    389.1   -73.4
                                                                          211 2_SN_330    330.00    2  3    389.1   -73.4
    209 2_EPS330    330.00    2 1.0094   -6.0     0.0      0.0     0.0 -----------------------------------------------------------------------------
                              1 333.11            0.0      0.0     0.0    202 2_EPSGEN    20.000    2  1  -1380.0   190.2  1.000UN
                                                                          207 2_N__330    330.00    2  1    418.4    50.8
                                                                          210 2_EPS500    500.00    2  1    156.6   -39.4  0.976LK
                                                                          210 2_EPS500    500.00    2  2    156.6   -39.4  0.976LK
                                                                          210 2_EPS500    500.00    2  3    156.6   -39.4  0.976LK
                                                                          210 2_EPS500    500.00    2  4    156.6   -39.4  0.976LK
                                                                          212 2_SW_330    330.00    2  1    335.3   -83.4
    210 2_EPS500    500.00    2 1.0459   -8.3     0.0      0.0     0.0 -----------------------------------------------------------------------------
                              1 522.93            0.0      0.0     0.0    209 2_EPS330    330.00    2  1   -156.6    46.0  1.000UN
                                                                          209 2_EPS330    330.00    2  2   -156.6    46.0  1.000UN
                                                                          209 2_EPS330    330.00    2  3   -156.6    46.0  1.000UN
                                                                          209 2_EPS330    330.00    2  4   -156.6    46.0  1.000UN
                                                                          213 2_K__500    500.00    2  1    313.2   -92.0
                                                                          213 2_K__500    500.00    2  2    313.2   -92.0
    211 2_SN_330    330.00    2 1.0144  -12.5     0.0   1060.0     0.0 -----------------------------------------------------------------------------
                              1 334.77            0.0    110.0     0.0    208 2_VPS330    330.00    2  1   -384.3    80.2
                                                                          208 2_VPS330    330.00    2  2   -384.3    80.2
                                                                          208 2_VPS330    330.00    2  3   -384.3    80.2
                                                                          212 2_SW_330    330.00    2  1     34.1   -93.7
                                                                          212 2_SW_330    330.00    2  2     34.1   -93.7
                                                                          214 2_K__330    330.00    2  1     24.8  -163.0
    212 2_SW_330    330.00    2 1.0232  -12.8     0.0   1000.0     0.0 -----------------------------------------------------------------------------
                              1 337.67            0.0    110.0  -418.8    206 2_BPS330    330.00    2  1   -375.9    66.5
                                                                          206 2_BPS330    330.00    2  2   -375.9    66.5
                                                                          209 2_EPS330    330.00    2  1   -330.1    78.9
                                                                          211 2_SN_330    330.00    2  1    -34.0    80.9
                                                                          211 2_SN_330    330.00    2  2    -34.0    80.9
                                                                          217 2_YC_330    330.00    2  1    150.0   -64.9
    213 2_K__500    500.00    2 1.0448  -10.7     0.0      0.0     0.0 -----------------------------------------------------------------------------
                              1 522.42            0.0      0.0     0.0    210 2_EPS500    500.00    2  1   -312.3   -63.2
                                                                          210 2_EPS500    500.00    2  2   -312.3   -63.2
                                                                          214 2_K__330    330.00    2  1    156.1    31.6  1.000LK
                                                                          214 2_K__330    330.00    2  2    156.1    31.6  1.000LK
                                                                          214 2_K__330    330.00    2  3    156.1    31.6  1.000LK
                                                                          214 2_K__330    330.00    2  4    156.1    31.6  1.000LK
    214 2_K__330    330.00    2 1.0374  -12.9     0.0      0.0     0.0 -----------------------------------------------------------------------------
                              1 342.35            0.0      0.0     0.0    211 2_SN_330    330.00    2  1    -24.4   146.6
                                                                          213 2_K__500    500.00    2  1   -156.1   -25.3  1.000UN
                                                                          213 2_K__500    500.00    2  2   -156.1   -25.3  1.000UN
                                                                          213 2_K__500    500.00    2  3   -156.1   -25.3  1.000UN
                                                                          213 2_K__500    500.00    2  4   -156.1   -25.3  1.000UN
                                                                          216 2_SS_330    330.00    2  1    430.3   -14.8
                                                                          217 2_YC_330    330.00    2  1    218.7   -30.6
    215 2_MPS330    330.00    2 1.0150   -5.4     0.0    290.0     0.0 -----------------------------------------------------------------------------
                              1 334.95            0.0     30.0     0.0    204 2_MPSGEN    20.000    2  1  -1597.1   329.1  1.000UN
                                                                          206 2_BPS330    330.00    2  1   -133.1   -13.3
                                                                          206 2_BPS330    330.00    2  2   -133.1   -13.3
                                                                          216 2_SS_330    330.00    2  1    410.7   -92.6
                                                                          216 2_SS_330    330.00    2  2    410.7   -92.6
                                                                          217 2_YC_330    330.00    2  1    376.1   -73.7
                                                                          217 2_YC_330    330.00    2  2    376.1   -73.7
    216 2_SS_330    330.00    2 1.0345  -14.7     0.0   1105.0     0.0 -----------------------------------------------------------------------------
                              1 341.38            0.0    120.0  -321.0    214 2_K__330    330.00    2  1   -428.6    17.9
                                                                          215 2_MPS330    330.00    2  1   -402.1   108.4
                                                                          215 2_MPS330    330.00    2  2   -402.1   108.4
                                                                          217 2_YC_330    330.00    2  1    127.7   -33.7
    217 2_YC_330    330.00    2 1.0322  -17.5     0.0    750.0     0.0 -----------------------------------------------------------------------------
                              1 340.63            0.0     80.0     0.0    102 1_HPS330    330.00    1  1    114.2   -58.1
                                                                          102 1_HPS330    330.00    1  2    114.2   -58.1
                                                                          102 1_HPS330    330.00    1  3    122.8   -56.1
                                                                          102 1_HPS330    330.00    1  4    122.8   -56.1
                                                                          212 2_SW_330    330.00    2  1   -148.4     5.0
                                                                          214 2_K__330    330.00    2  1   -216.5    -3.0
                                                                          215 2_MPS330    330.00    2  1   -366.1    79.6
                                                                          215 2_MPS330    330.00    2  2   -366.1    79.6
                                                                          216 2_SS_330    330.00    2  1   -126.9   -12.9
    301 3_LPSGEN    20.000    3 1.0000   -6.4  3330.0      0.0     0.0 -----------------------------------------------------------------------------
                              1 20.000           99.7R     0.0     0.0    303 3_LPS500    500.00    3  1   3330.0    99.7  1.000LK

    302 3_YPSGEN    20.000    3 1.0000  -15.4   760.0      0.0     0.0 -----------------------------------------------------------------------------
                              1 20.000          -18.5R     0.0     0.0    312 3_YPS220    220.00    3  1    760.0   -18.5  1.000LK

    303 3_LPS500    500.00    3 1.0049  -14.0     0.0      0.0     0.0 -----------------------------------------------------------------------------
                              1 502.44            0.0      0.0     0.0    301 3_LPSGEN    20.000    3  1  -3330.0   344.2  1.000UN
                                                                          304 3_R__500    500.00    3  1    558.5   -35.7
                                                                          304 3_R__500    500.00    3  2    558.5   -35.7
                                                                          305 3_SM_500    500.00    3  1   1106.5  -136.4
                                                                          305 3_SM_500    500.00    3  2   1106.5  -136.4
    304 3_R__500    500.00    3 1.0054  -22.9     0.0      0.0     0.0 -----------------------------------------------------------------------------
                              1 502.71            0.0      0.0     0.0    303 3_LPS500    500.00    3  1   -552.4    47.5
                                                                          303 3_LPS500    500.00    3  2   -552.4    47.5
                                                                          305 3_SM_500    500.00    3  1    472.6  -325.6
                                                                          313 3_RSV220    220.00    3  1    316.0   115.3  0.961LK
                                                                          313 3_RSV220    220.00    3  2    316.0   115.3  0.961LK
    305 3_SM_500    500.00    3 1.0163  -24.0     0.0      0.0     0.0 -----------------------------------------------------------------------------
                              1 508.15            0.0      0.0     0.0    303 3_LPS500    500.00    3  1  -1093.1   157.2
                                                                          303 3_LPS500    500.00    3  2  -1093.1   157.2
                                                                          304 3_R__500    500.00    3  1   -471.7   294.8
                                                                          306 3_K__500    500.00    3  1    934.2  -133.6
                                                                          307 3_M__500    500.00    3  1    633.9  -156.5
                                                                          307 3_M__500    500.00    3  2    633.9  -156.5
                                                                          311 3_SM_330    330.00    3  1    -19.5   -59.7  1.000LK
                                                                          311 3_SM_330    330.00    3  2    -19.5   -59.7  1.000LK
                                                                          311 3_SM_330    330.00    3  3    -19.5   -59.7  1.000LK
                                                                          314 3_SM_220    220.00    3  1    257.1     8.3  1.000LK
                                                                          314 3_SM_220    220.00    3  2    257.1     8.3  1.000LK
    306 3_K__500    500.00    3 1.0183  -25.6     0.0    900.0     0.0 -----------------------------------------------------------------------------
                              1 509.15            0.0     90.0     0.0    305 3_SM_500    500.00    3  1   -932.5   126.2
                                                                          307 3_M__500    500.00    3  1     32.5  -216.2
    307 3_M__500    500.00    3 1.0207  -25.6     0.0    470.0     0.0 -----------------------------------------------------------------------------
                              1 510.37            0.0     50.0     0.0    305 3_SM_500    500.00    3  1   -632.7   128.5
                                                                          305 3_SM_500    500.00    3  2   -632.7   128.5
                                                                          306 3_K__500    500.00    3  1    -32.4   203.5
                                                                          308 3_H__500    500.00    3  1    413.9  -255.2
                                                                          308 3_H__500    500.00    3  2    413.9  -255.2
    308 3_H__500    500.00    3 1.0441  -32.9     0.0    620.0     0.0 -----------------------------------------------------------------------------
                              1 522.05            0.0    100.0     0.0    307 3_M__500    500.00    3  1   -410.0   -56.8
                                                                          307 3_M__500    500.00    3  2   -410.0   -56.8
                                                                          315 3_H__275    275.00    3  1    100.0     6.8  1.000LK
                                                                          315 3_H__275    275.00    3  2    100.0     6.8  1.000LK
    309 3_D__330    330.00    3 1.0418  -23.2     0.0    140.0     0.0 -----------------------------------------------------------------------------
                              1 343.81            0.0     15.0     0.0    102 1_HPS330    330.00    1  1    -82.5     7.8
                                                                          102 1_HPS330    330.00    1  2    -82.5     7.8
                                                                          102 1_HPS330    330.00    1  3    -33.9   -28.3
                                                                          310 3_SS_330    330.00    3  1     19.6    -0.8
                                                                          310 3_SS_330    330.00    3  2     19.6    -0.8
                                                                          310 3_SS_330    330.00    3  3     19.6    -0.8
    310 3_SS_330    330.00    3 1.0078  -24.2     0.0      0.0     0.0 -----------------------------------------------------------------------------
                              1 332.56            0.0      0.0     0.0    309 3_D__330    330.00    3  1    -19.5   -59.1
                                                                          309 3_D__330    330.00    3  2    -19.5   -59.1
                                                                          309 3_D__330    330.00    3  3    -19.5   -59.1
                                                                          311 3_SM_330    330.00    3  1     29.2    88.7
                                                                          311 3_SM_330    330.00    3  2     29.2    88.7
    311 3_SM_330    330.00    3 1.0375  -23.6     0.0      0.0     0.0 -----------------------------------------------------------------------------
                              1 342.36            0.0      0.0     0.0    305 3_SM_500    500.00    3  1     19.5    61.0  1.000UN
                                                                          305 3_SM_500    500.00    3  2     19.5    61.0  1.000UN
                                                                          305 3_SM_500    500.00    3  3     19.5    61.0  1.000UN
                                                                          310 3_SS_330    330.00    3  1    -29.2   -91.6
                                                                          310 3_SS_330    330.00    3  2    -29.2   -91.6
    312 3_YPS220    220.00    3 1.0113  -22.7     0.0     92.0     0.0 -----------------------------------------------------------------------------
                              1 222.49            0.0     10.0     0.0    302 3_YPSGEN    20.000    3  1   -760.0   116.2  1.000UN
                                                                          313 3_RSV220    220.00    3  1    222.7   -42.1
                                                                          313 3_RSV220    220.00    3  2    222.7   -42.1
                                                                          313 3_RSV220    220.00    3  3    222.7   -42.1
    313 3_RSV220    220.00    3 1.0150  -28.4     0.0   1625.0     0.0 -----------------------------------------------------------------------------
                              1 223.30           86.7R   165.0     0.0    304 3_R__500    500.00    3  1   -316.0   -82.2  1.000UN
                                                                          304 3_R__500    500.00    3  2   -316.0   -82.2  1.000UN
                                                                          312 3_YPS220    220.00    3  1   -219.7    33.4
                                                                          312 3_YPS220    220.00    3  2   -219.7    33.4
                                                                          312 3_YPS220    220.00    3  3   -219.7    33.4
                                                                          314 3_SM_220    220.00    3  1   -166.9    -7.0
                                                                          314 3_SM_220    220.00    3  2   -166.9    -7.0
    314 3_SM_220    220.00    3 1.0162  -27.4     0.0    180.0     0.0 -----------------------------------------------------------------------------
                              1 223.55            0.0     20.0     0.0    305 3_SM_500    500.00    3  1   -257.1     7.1  1.000UN
                                                                          305 3_SM_500    500.00    3  2   -257.1     7.1  1.000UN
                                                                          313 3_RSV220    220.00    3  1    167.1   -17.1
                                                                          313 3_RSV220    220.00    3  2    167.1   -17.1
    315 3_H__275    275.00    3 1.0427  -34.4     0.0      0.0     0.0 -----------------------------------------------------------------------------
                              1 286.73            0.0      0.0     0.0    308 3_H__500    500.00    3  1   -100.0    -4.3  1.000UN
                                                                          308 3_H__500    500.00    3  2   -100.0    -4.3  1.000UN
                                                                          509 5_SSV275    275.00    5  1    100.0     4.3
                                                                          509 5_SSV275    275.00    5  2    100.0     4.3
    401 4_TPSGEN    20.000    4 1.0000  -13.1   960.0      0.0     0.0 -----------------------------------------------------------------------------
                              1 20.000          -65.7R     0.0     0.0    410 4_TPS275    275.00    4  1    960.0   -65.7  1.000LK

    402 4_CPSGEN    20.000    4 1.0000    2.2   580.0      0.0     0.0 -----------------------------------------------------------------------------
                              1 20.000           -4.7R     0.0     0.0    408 4_CPS275    275.00    4  1    580.0    -4.7  1.000LK

    403 4_SPSGEN    20.000    4 1.0000    2.0   960.0      0.0     0.0 -----------------------------------------------------------------------------
                              1 20.000           42.6R     0.0     0.0    407 4_SPS275    275.00    4  1    960.0    42.6  1.000LK

    404 4_GPSGEN    20.000    4 1.0000   -4.7   651.0      0.0     0.0 -----------------------------------------------------------------------------
                              1 20.000          -10.5R     0.0     0.0    405 4_GPS275    275.00    4  1    651.0   -10.5  1.000LK

    405 4_GPS275    275.00    4 1.0079  -11.0     0.0    730.0     0.0 -----------------------------------------------------------------------------
                              1 277.17            0.0     75.0     0.0    404 4_GPSGEN    20.000    4  1   -651.0    82.6  1.000UN
                                                                          406 4_N__275    275.00    4  1   -175.2    20.8
                                                                          406 4_N__275    275.00    4  2   -175.2    20.8
                                                                          408 4_CPS275    275.00    4  1   -170.4     7.7
                                                                          409 4_W__275    275.00    4  1    147.3   -68.9
                                                                          409 4_W__275    275.00    4  2    147.3   -68.9
                                                                          409 4_W__275    275.00    4  3    147.3   -68.9
    406 4_N__275    275.00    4 0.9993   -6.2     0.0    540.0     0.0 -----------------------------------------------------------------------------
                              1 274.80            0.0     55.0     0.0    405 4_GPS275    275.00    4  1    176.5   -44.1
                                                                          405 4_GPS275    275.00    4  2    176.5   -44.1
                                                                          407 4_SPS275    275.00    4  1   -446.5    16.6
                                                                          407 4_SPS275    275.00    4  2   -446.5    16.6
    407 4_SPS275    275.00    4 1.0011   -4.2     0.0      0.0     0.0 -----------------------------------------------------------------------------
                              1 275.29            0.0      0.0     0.0    403 4_SPSGEN    20.000    4  1   -960.0    61.4  1.000UN
                                                                          406 4_N__275    275.00    4  1    447.7    -7.6
                                                                          406 4_N__275    275.00    4  2    447.7    -7.6
                                                                          408 4_CPS275    275.00    4  1     64.6   -46.3
    408 4_CPS275    275.00    4 1.0121   -6.2     0.0    110.0     0.0 -----------------------------------------------------------------------------
                              1 278.32            0.0     10.0     0.0    402 4_CPSGEN    20.000    4  1   -580.0    90.5  1.000UN
                                                                          405 4_GPS275    275.00    4  1    172.0   -12.5
...